$DATA1 SOURCE='HSPICE' VERSION='P-2019.06-SP1-1 win64' PARAM_COUNT=0
.TITLE '**********************************'
 vomax            vomin            tco              tplh            
 tr               tf               avgpower         temper          
 alter#          
    failed           failed         3.847e-09          failed       
    failed           failed        -4.178e-04         25.0000       
1               
