$DATA1 SOURCE='HSPICE' VERSION='P-2019.06-SP1-1 win64' PARAM_COUNT=0
.TITLE '**********************************'
 vomax            vomin            tco_total        tco_lookahead   
 tco_select       tplh             tr               tf              
 avgpower         temper           alter#          
    failed           failed         2.466e-09        1.307e-09      
  1.159e-09          failed           failed           failed       
 -5.466e-03         25.0000        1               
