 ****** HSPICE -- P-2019.06-SP1-1 win64 (Sep 27 2019) ******                    
  Copyright (c) 1986 - 2023 by Synopsys, Inc. All Rights Reserved.              
  This software and the associated documentation are proprietary
  to Synopsys, Inc. This software may only be used in accordance
  with the terms and conditions of a written license agreement with
  Synopsys, Inc. All other use, reproduction, or distribution of
  this software is strictly prohibited.
  Input File: final_sub.sp                                                      
  Command line options: D:\Software\HSPICE\Hspice\Hspice_P-2019.06-SP1-1\WIN64\hspice.com -i final_sub.sp -o E:\WorkStation\Digital IC\src\final\hspice\final_sub.lis
  Start time: Thu Dec 28 17:21:42 2023
  lic:  
  lic: FLEXlm: SDK_12.3 
  lic: USER:   Winter               HOSTNAME: Marvel 
  lic: HOSTID: "f4267972055f"       PID:      3628 
  lic: Using FLEXlm license file: 
  lic: 27000@Marvel 
  lic: Checkout 1 hspice 
  lic: License/Maintenance for hspice will expire on 30-dec-2030/2030.12 
  lic: 1(in_use)/99(total) FLOATING license(s) on SERVER 27000@Marvel 
  lic:   
1****** HSPICE -- P-2019.06-SP1-1 win64 (Sep 27 2019) ******                    
 ******  
 **********************************

 ****** circuit name directory
 circuit number to circuit name directory
   number circuitname                     definition         multiplier
        0 main circuit
        1 xpass0.                         xor2               1.00 
        2 xpass1.                         xor2               1.00 
        3 xpass2.                         xor2               1.00 
        4 xpass3.                         xor2               1.00 
        5 xpass4.                         xor2               1.00 
        6 xpass5.                         xor2               1.00 
        7 xpass6.                         xor2               1.00 
        8 xpass7.                         xor2               1.00 
        9 xgen0.                          and2               1.00 
       10 xgen1.                          and2               1.00 
       11 xgen2.                          and2               1.00 
       12 xgen3.                          and2               1.00 
       13 xgen4.                          and2               1.00 
       14 xgen5.                          and2               1.00 
       15 xgen6.                          and2               1.00 
       16 xgen7.                          and2               1.00 
       17 xco7.                           cla3               1.00 
       18 xco6.                           cla2               1.00 
       19 xco5.                           cla1               1.00 
       20 xco4.                           cla0               1.00 
       21 xco3.                           cla3               1.00 
       22 xco2.                           cla2               1.00 
       23 xco1.                           cla1               1.00 
       24 xco0.                           cla0               1.00 
       25 xs0.                            xor2               1.00 
       26 xs1.                            xor2               1.00 
       27 xs2.                            xor2               1.00 
       28 xs3.                            xor2               1.00 
       29 xs4.                            xor2               1.00 
       30 xs5.                            xor2               1.00 
       31 xs6.                            xor2               1.00 
       32 xs7.                            xor2               1.00 
       33 xcsa.                           csa8               1.00 
       34 xpass0.x1.                      inv                1.00 
       35 xpass0.x2.                      inv                1.00 
       36 xpass1.x1.                      inv                1.00 
       37 xpass1.x2.                      inv                1.00 
       38 xpass2.x1.                      inv                1.00 
       39 xpass2.x2.                      inv                1.00 
       40 xpass3.x1.                      inv                1.00 
       41 xpass3.x2.                      inv                1.00 
       42 xpass4.x1.                      inv                1.00 
       43 xpass4.x2.                      inv                1.00 
       44 xpass5.x1.                      inv                1.00 
       45 xpass5.x2.                      inv                1.00 
       46 xpass6.x1.                      inv                1.00 
       47 xpass6.x2.                      inv                1.00 
       48 xpass7.x1.                      inv                1.00 
       49 xpass7.x2.                      inv                1.00 
       50 xco7.x1.                        inv                1.00 
       51 xco6.x1.                        inv                1.00 
       52 xco5.x1.                        inv                1.00 
       53 xco4.x1.                        inv                1.00 
       54 xco3.x1.                        inv                1.00 
       55 xco2.x1.                        inv                1.00 
       56 xco1.x1.                        inv                1.00 
       57 xco0.x1.                        inv                1.00 
       58 xs0.x1.                         inv                1.00 
       59 xs0.x2.                         inv                1.00 
       60 xs1.x1.                         inv                1.00 
       61 xs1.x2.                         inv                1.00 
       62 xs2.x1.                         inv                1.00 
       63 xs2.x2.                         inv                1.00 
       64 xs3.x1.                         inv                1.00 
       65 xs3.x2.                         inv                1.00 
       66 xs4.x1.                         inv                1.00 
       67 xs4.x2.                         inv                1.00 
       68 xs5.x1.                         inv                1.00 
       69 xs5.x2.                         inv                1.00 
       70 xs6.x1.                         inv                1.00 
       71 xs6.x2.                         inv                1.00 
       72 xs7.x1.                         inv                1.00 
       73 xs7.x2.                         inv                1.00 
       74 xcsa.xdel0.                     nor2               1.00 
       75 xcsa.xdel1.                     nor2               1.00 
       76 xcsa.xdel2.                     nor2               1.00 
       77 xcsa.xdel3.                     nor2               1.00 
       78 xcsa.xdel4.                     nor2               1.00 
       79 xcsa.xdel5.                     nor2               1.00 
       80 xcsa.xdel6.                     nor2               1.00 
       81 xcsa.xdel7.                     nor2               1.00 
       82 xcsa.xpass0.                    xor2               1.00 
       83 xcsa.xpass1.                    xor2               1.00 
       84 xcsa.xpass2.                    xor2               1.00 
       85 xcsa.xpass3.                    xor2               1.00 
       86 xcsa.xpass4.                    xor2               1.00 
       87 xcsa.xpass5.                    xor2               1.00 
       88 xcsa.xpass6.                    xor2               1.00 
       89 xcsa.xpass7.                    xor2               1.00 
       90 xcsa.xgen0.                     nand2              1.00 
       91 xcsa.xgen1.                     nand2              1.00 
       92 xcsa.xgen2.                     nand2              1.00 
       93 xcsa.xgen3.                     nand2              1.00 
       94 xcsa.xgen4.                     nand2              1.00 
       95 xcsa.xgen5.                     nand2              1.00 
       96 xcsa.xgen6.                     nand2              1.00 
       97 xcsa.xgen7.                     nand2              1.00 
       98 xcsa.xcarry0.                   manchester8        1.00 
       99 xcsa.xcarry1.                   manchester8        1.00 
      100 xcsa.xmux.                      multiplexer        1.00 
      101 xcsa.xs0.                       xor2               1.00 
      102 xcsa.xs1.                       xor2               1.00 
      103 xcsa.xs2.                       xor2               1.00 
      104 xcsa.xs3.                       xor2               1.00 
      105 xcsa.xs4.                       xor2               1.00 
      106 xcsa.xs5.                       xor2               1.00 
      107 xcsa.xs6.                       xor2               1.00 
      108 xcsa.xs7.                       xor2               1.00 
      109 xcsa.xpass0.x1.                 inv                1.00 
      110 xcsa.xpass0.x2.                 inv                1.00 
      111 xcsa.xpass1.x1.                 inv                1.00 
      112 xcsa.xpass1.x2.                 inv                1.00 
      113 xcsa.xpass2.x1.                 inv                1.00 
      114 xcsa.xpass2.x2.                 inv                1.00 
      115 xcsa.xpass3.x1.                 inv                1.00 
      116 xcsa.xpass3.x2.                 inv                1.00 
      117 xcsa.xpass4.x1.                 inv                1.00 
      118 xcsa.xpass4.x2.                 inv                1.00 
      119 xcsa.xpass5.x1.                 inv                1.00 
      120 xcsa.xpass5.x2.                 inv                1.00 
      121 xcsa.xpass6.x1.                 inv                1.00 
      122 xcsa.xpass6.x2.                 inv                1.00 
      123 xcsa.xpass7.x1.                 inv                1.00 
      124 xcsa.xpass7.x2.                 inv                1.00 
      125 xcsa.xcarry0.x0.                manchester         1.00 
      126 xcsa.xcarry0.x1.                manchester         1.00 
      127 xcsa.xcarry0.x2.                manchester         1.00 
      128 xcsa.xcarry0.x3.                manchester         1.00 
      129 xcsa.xcarry0.xinv1.             inv                1.00 
      130 xcsa.xcarry0.xinv2.             inv                1.00 
      131 xcsa.xcarry0.x4.                manchester         1.00 
      132 xcsa.xcarry0.x5.                manchester         1.00 
      133 xcsa.xcarry0.x6.                manchester         1.00 
      134 xcsa.xcarry0.x7.                manchester         1.00 
      135 xcsa.xcarry1.x0.                manchester         1.00 
      136 xcsa.xcarry1.x1.                manchester         1.00 
      137 xcsa.xcarry1.x2.                manchester         1.00 
      138 xcsa.xcarry1.x3.                manchester         1.00 
      139 xcsa.xcarry1.xinv1.             inv                1.00 
      140 xcsa.xcarry1.xinv2.             inv                1.00 
      141 xcsa.xcarry1.x4.                manchester         1.00 
      142 xcsa.xcarry1.x5.                manchester         1.00 
      143 xcsa.xcarry1.x6.                manchester         1.00 
      144 xcsa.xcarry1.x7.                manchester         1.00 
      145 xcsa.xmux.x1.                   mux                1.00 
      146 xcsa.xmux.x2.                   mux                1.00 
      147 xcsa.xmux.x3.                   mux                1.00 
      148 xcsa.xmux.x4.                   mux                1.00 
      149 xcsa.xmux.x5.                   mux                1.00 
      150 xcsa.xmux.x6.                   mux                1.00 
      151 xcsa.xmux.x7.                   mux                1.00 
      152 xcsa.xmux.x8.                   mux                1.00 
      153 xcsa.xs0.x1.                    inv                1.00 
      154 xcsa.xs0.x2.                    inv                1.00 
      155 xcsa.xs1.x1.                    inv                1.00 
      156 xcsa.xs1.x2.                    inv                1.00 
      157 xcsa.xs2.x1.                    inv                1.00 
      158 xcsa.xs2.x2.                    inv                1.00 
      159 xcsa.xs3.x1.                    inv                1.00 
      160 xcsa.xs3.x2.                    inv                1.00 
      161 xcsa.xs4.x1.                    inv                1.00 
      162 xcsa.xs4.x2.                    inv                1.00 
      163 xcsa.xs5.x1.                    inv                1.00 
      164 xcsa.xs5.x2.                    inv                1.00 
      165 xcsa.xs6.x1.                    inv                1.00 
      166 xcsa.xs6.x2.                    inv                1.00 
      167 xcsa.xs7.x1.                    inv                1.00 
      168 xcsa.xs7.x2.                    inv                1.00 
      169 xcsa.xcarry0.x0.x1.             inv                1.00 
      170 xcsa.xcarry0.x1.x1.             inv                1.00 
      171 xcsa.xcarry0.x2.x1.             inv                1.00 
      172 xcsa.xcarry0.x3.x1.             inv                1.00 
      173 xcsa.xcarry0.x4.x1.             inv                1.00 
      174 xcsa.xcarry0.x5.x1.             inv                1.00 
      175 xcsa.xcarry0.x6.x1.             inv                1.00 
      176 xcsa.xcarry0.x7.x1.             inv                1.00 
      177 xcsa.xcarry1.x0.x1.             inv                1.00 
      178 xcsa.xcarry1.x1.x1.             inv                1.00 
      179 xcsa.xcarry1.x2.x1.             inv                1.00 
      180 xcsa.xcarry1.x3.x1.             inv                1.00 
      181 xcsa.xcarry1.x4.x1.             inv                1.00 
      182 xcsa.xcarry1.x5.x1.             inv                1.00 
      183 xcsa.xcarry1.x6.x1.             inv                1.00 
      184 xcsa.xcarry1.x7.x1.             inv                1.00 
      185 xcsa.xmux.x1.x1.                inv                1.00 
      186 xcsa.xmux.x2.x1.                inv                1.00 
      187 xcsa.xmux.x3.x1.                inv                1.00 
      188 xcsa.xmux.x4.x1.                inv                1.00 
      189 xcsa.xmux.x5.x1.                inv                1.00 
      190 xcsa.xmux.x6.x1.                inv                1.00 
      191 xcsa.xmux.x7.x1.                inv                1.00 
      192 xcsa.xmux.x8.x1.                inv                1.00 
 ******  
 **********************************

 ****** mos   model parameters tnom=  25.000 temp=  25.000 ******
 ***************************************************************************
 ***        model parameters  model name:   0:nmos_3p3 model type:nmos   ***
 ***************************************************************************

   *** general parameters ***
    deriv=   0.           

   ***  level 53  model parameters  ***

       hspver=       98.2               level=         53         
      version=        3.3            paramchk=          1         
       apwarn=          1                lite=          0         
       vgslim=          0             binUnit=          2         
       capMod=          3               xpart=          0         
       mobMod=          1              nqsMod=          0         
     acnqsMod=          0              stiMod=          0         
          elm=          5            sfvtflag=          0         
          tox=   7.69e-09 meter            xj=      1e-07 meter   
      binflag=          0                lmin=          0 meter   
         lmax=          0 meter          wmin=          0 meter   
         wmax=          0 meter          lref=          0 meter   
         wref=          0 meter          lint=  4.124e-08 meter   
         wint=    6.3e-08 meter         lmult=          1         
        wmult=          1                  ll=    7.5e-15         
          lln=          1                  lw=          0         
          lwn=          1                 lwl=3.50365e-21         
           wl=          0                 wln=          1         
           ww=-4.75109e-10                 wwn=   0.229655         
          wwl=          0                 dwg= 3.9968e-15 m/V     
          dwb=   9.03e-09 m/V^1/2          xl=          0         
           xw=          0                  a0=    1.19169         
          ags=      0.255 V^-1             b0=   5.12e-08 meter   
           b1=          0 meter          keta=  -0.011081 V^-1    
         voff=  -0.133825 V             ngate=      1e+23 cm^-3   
          vbx=          0 V               vbm=         -3 V       
           xt=   1.55e-07 meter          vth0=     0.6053 V       
          nch= 2.0857e+17 cm^-3          nsub=      6e+16 cm^-3   
          nlx=1.24779e-07 meter        gamma1=          0 V^-1/2  
       gamma2=          0 V^-1/2           k1=      0.678 V^1/2   
           k2=          0                  k3=   8.25e-06         
          k3b=         21 V^-1             w0= 8.6645e-06 meter   
         dvt0=       4.95                dvt1=   0.786824         
         dvt2=      -0.05 V^-1          dvt0w=4.31371e-17 meter^-1
        dvt1w=     702321 meter^-1      dvt2w=      -0.05 V^-1    
         dsub=   0.779651                eta0=  0.0958194         
         etab=    -0.0384 V^-1             u0=  0.0413717 m^2/V/sec
           ua=-4.76216e-10 m/V              ub=2.54186e-18 (m/V)^2 
           uc=7.87484e-11 V^-1           vsat=     100790 m/sec   
           a1=          0 v^-1             a2=          1         
        delta= 0.00214501 V              rdsw=       1146 ohm-um  
         prwg=-3.25963e-09 V^-1           prwb=     0.0295 V^-1/2  
           wr=          1                pclm=    1.08382         
      pdiblc1= 0.00332566             pdiblc2= 0.00106738         
      pdiblcb=          0 V^-1         pscbe1= 8.5164e+08 V/m     
       pscbe2=4.28628e-05 V/m           drout=  0.0959511         
         pvag=  0.0707466             nfactor=    0.88752         
         cdsc=0.000640402 f/m^2         cdscb=          0 f/V/m^2 
        cdscd=          0 f/V/m^2         cit=          0 f/m^2   
       alpha0=    1.1e-06 m/V           beta0=    22.4854 V       
          dlc=    1.3e-09 meter           dwc=    6.3e-08 meter   
          clc=      1e-07 meter           cle=        0.6         
         cgso=   1.06e-10 f/m            cgdo=   1.06e-10 f/m     
         cgbo=      1e-13 f/m            cgsl=    2.2e-10 f/m     
         cgdl=    2.2e-10 f/m          ckappa=        0.6         
           cf=          0 f/m            acde=        0.5 m/V     
         moin=         15 V^1/2          toxm=   7.69e-09 m       
       dtoxcv=          0 m               vfb=  -0.877122 V       
       alpha1=    4.77572 1/V            ijth=        0.1 A       
         noff=          1              voffcv=          0         
          tcj=0.000962614 1/K           tcjsw=0.000762213 1/K     
       tcjswg=          0 1/K             tpb= 0.00157771 V/K     
        tpbsw= 0.00234127 V/K          tpbswg=          0 V/K     
          llc=          0                 lwc=          0         
         lwlc=          0                 wlc=          0         
          wwc=          0                wwlc=          0         
         tnom=     298.15 K               kt1=   -0.27825 V       
         kt1l=-2.21917e-08                 kt2=      -0.02         
          ute=   -1.72434                 ua1=-4.54604e-13 m/V     
          ub1=3.34602e-21 (m/V)^2         uc1=-7.62893e-12 m/V^2   
           at=      34000 m/s             prt=     390.55         
          using Berkeley noise model       noiMod=          2         
         noia=      8e+18                noib=       7000         
         noic=    1.4e-13                  em=    4.1e+07         
           ef=       0.99                  af=          1         
           kf=          0             lintnoi=          0         
       gdsnoi=-1.23457e-29         
          using Berkeley diodes          using ACM 
          acm=        12                 hdif=   3.5e-07 meter    
         ldif=         0 meter             js=  3.05e-07 amp/m^2  
          jsw=   1.4e-13 amp/m            xti=         3          
           nj=    0.9935                   cj=0.00102391 f/m^2    
           mj=  0.349465                   pb=  0.727154 V        
         cjsw=2.26855e-10 f/m             mjsw=   0.26934          
          php (not used)                  pbsw=  0.949725 V        
       cjgate (not used)                 cjswg=2.26855e-10 f/m      
        mjswg=   0.26934                pbswg=  0.949725 V        
        lketa=      4e-09               lrdsw=   -2.4e-05         
       lbeta0=      8e-08                lkt1=  1.218e-08         
         lkt2=     -1e-08             lalpha1=   -3.7e-07         
        wvsat=     0.0225               wrdsw=  -0.000192         
         wute=      8e-08                pags=   -2.5e-14         
        pketa=   1.65e-15               pdvt0=     -4e-14         
        peta0=  -3.36e-15               petab=      2e-15         
          pub=   -1.8e-32                 puc=     -3e-24         
        prdsw=      1e-11             palpha0=    1.5e-19         
      palpha1=   -8.2e-13         
 ***************************************************************************
 ***        model parameters  model name:   0:pmos_3p3 model type:pmos   ***
 ***************************************************************************

   *** general parameters ***
    deriv=   0.           

   ***  level 53  model parameters  ***

       hspver=       98.2               level=         53         
      version=        3.3            paramchk=          1         
       apwarn=          1                lite=          0         
       vgslim=          0             binUnit=          2         
       capMod=          3               xpart=          0         
       mobMod=          1              nqsMod=          0         
     acnqsMod=          0              stiMod=          0         
          elm=          5            sfvtflag=          0         
          tox=   8.69e-09 meter            xj=      1e-07 meter   
      binflag=          0                lmin=          0 meter   
         lmax=          0 meter          wmin=          0 meter   
         wmax=          0 meter          lref=          0 meter   
         wref=          0 meter          lint=-2.5226e-08 meter   
         wint=   4.99e-08 meter         lmult=          1         
        wmult=          1                  ll=          0         
          lln=          1                  lw=   -3.5e-15         
          lwn=   0.969037                 lwl= 2.5025e-20         
           wl=   5.49e-14                 wln=     1.1132         
           ww=  -3.75e-09                 wwn=        0.1         
          wwl=   -1.2e-14                 dwg=     -2e-08 m/V     
          dwb=          0 m/V^1/2          xl=          0         
           xw=          0                  a0=    1.56492         
          ags=     0.3275 V^-1             b0=   5.12e-07 meter   
           b1=    6.5e-07 meter          keta= -0.0166773 V^-1    
         voff=    -0.1239 V             ngate=      1e+23 cm^-3   
          vbx=          0 V               vbm=         -3 V       
           xt=   1.55e-07 meter          vth0=     -0.845 V       
          nch=   6.93e+16 cm^-3          nsub=      6e+16 cm^-3   
          nlx=   1.92e-07 meter        gamma1=          0 V^-1/2  
       gamma2=          0 V^-1/2           k1=     0.4883 V^1/2   
           k2=    -0.0001                  k3=       0.71         
          k3b=      0.224 V^-1             w0=          0 meter   
         dvt0=     2.4753                dvt1=     0.3918         
         dvt2=      0.015 V^-1          dvt0w=    -0.5864 meter^-1
        dvt1w=     570000 meter^-1      dvt2w=      -0.05 V^-1    
         dsub=   0.700386                eta0=  0.0791148         
         etab=          0 V^-1             u0=     0.0277 m^2/V/sec
           ua=   3.14e-09 m/V              ub=   6.95e-19 (m/V)^2 
           uc=   1.07e-10 V^-1           vsat=     230000 m/sec   
           a1=          0 v^-1             a2=      0.296         
        delta=       0.01 V              rdsw=       1790 ohm-um  
         prwg=          0 V^-1           prwb=     0.1194 V^-1/2  
           wr=     0.9209                pclm=    3.25804         
      pdiblc1=  0.0155649             pdiblc2=0.000260376         
      pdiblcb=  -0.148745 V^-1         pscbe1=5.87558e+08 V/m     
       pscbe2=      1e-08 V/m           drout=   0.166636         
         pvag=    3.66097             nfactor=          1         
         cdsc=  0.0009312 f/m^2         cdscb= 0.00028855 f/V/m^2 
        cdscd=          0 f/V/m^2         cit=  0.0003675 f/m^2   
       alpha0=      2e-09 m/V           beta0=       28.8 V       
          dlc=     -6e-09 meter           dwc=   4.99e-08 meter   
          clc=      1e-07 meter           cle=        0.6         
         cgso=   1.05e-10 f/m            cgdo=   1.05e-10 f/m     
         cgbo=      1e-13 f/m            cgsl=    1.5e-10 f/m     
         cgdl=    1.5e-10 f/m          ckappa=        0.6         
           cf=          0 f/m            acde=        0.5 m/V     
         moin=         15 V^1/2          toxm=   8.69e-09 m       
       dtoxcv=          0 m               vfb=  -0.402989 V       
       alpha1=       0.27 1/V            ijth=        0.1 A       
         noff=          2              voffcv=      -0.03         
          tcj=0.000948968 1/K           tcjsw=0.000701637 1/K     
       tcjswg=          0 1/K             tpb= 0.00161208 V/K     
        tpbsw= 0.00111539 V/K          tpbswg=          0 V/K     
          llc=          0                 lwc=          0         
         lwlc=          0                 wlc=          0         
          wwc=          0                wwlc=          0         
         tnom=     298.15 K               kt1=      -0.56 V       
         kt1l=          0                 kt2=     -0.046         
          ute=      -1.49                 ua1=   2.58e-09 m/V     
          ub1=-5.6795e-18 (m/V)^2         uc1=   -5.4e-10 m/V^2   
           at=     136000 m/s             prt=          0         
          using Berkeley noise model       noiMod=          2         
         noia=      5e+18                noib=      20000         
         noic=      9e-14                  em=    4.1e+07         
           ef=          1                  af=          1         
           kf=          0             lintnoi=          0         
       gdsnoi=-1.23457e-29         
          using Berkeley diodes          using ACM 
          acm=        12                 hdif=   3.5e-07 meter    
         ldif=         0 meter             js=  2.18e-07 amp/m^2  
          jsw=     1e-13 amp/m            xti=         3          
           nj=         1                   cj=0.00122954 f/m^2    
           mj=  0.414916                   pb=  0.848885 V        
         cjsw=3.63341e-10 f/m             mjsw=  0.293826          
          php (not used)                  pbsw=  0.664886 V        
       cjgate (not used)                 cjswg=3.63341e-10 f/m      
        mjswg=  0.293826                pbswg=  0.664886 V        
         lags=   1.53e-07                 lk1=      1e-09         
        leta0=    4.1e-08               lrdsw=   -0.00022         
       lbeta0=   -1.1e-06                lute=      1e-07         
         lub1=     -9e-25                luc1=4.49945e-17         
         wdwb=      6e-15                wub1=   3.32e-25         
         wuc1=    1.1e-16                wprt=    0.00045         
      walpha1=     -6e-08                pdwb=     -5e-22         
        peta0=   -1.3e-14               pvsat=    3.5e-09         
     pnfactor=   -3.5e-14                pkt1=1.99999e-15         
         pute=     -1e-14                pua1=-5.4955e-23         
         pub1=    1.3e-31                puc1=  -9.91e-24         
          pat=     -2e-09                pprt=     -5e-11         
  **info** (final_sub.sp:527) DC voltage reset to initial transient source value in source 0:va0. new dc=0.0000D+00
  **warning** (final_sub.sp:522) Both nodes of element vgnd are connected together; Line ignored.
 

 Warning: Eta0 = -0.0259881 is negative in BSIM3 model 0:pmos_3p3 with W = 3.5e-07, L = 3.5e-07.
  
             
 Warning:'No DC path nodes' occurs 1 times
 No DC path from the following nodes,connected with gdcpath:
 -----------------------
 |Node      |Subckt    |
 |----------+----------|
 |b15       |0         |
 -----------------------
              
      
 **info** set option symb=1 internally to help for convergence.
 *****************************************************************
 ******  option summary
 ******
 runlvl  = 3         bypass  = 2.0000    
  Opening plot unit= 79
 file=E:\WorkStation\Digital IC\src\final\hspice\final_sub.pa0

 **info** dc convergence successful at Newton-Raphson method 
 ******  
 **********************************

 ****** operating point information tnom=  25.000 temp=  25.000 ******
 ****** operating point status is voltage   simulation time is     0.     
      node    =voltage        node    =voltage        node    =voltage

 +  0:a0      =   0.        0:a1      =   0.        0:a10     =   0.     
 +  0:a11     =   0.        0:a12     =   0.        0:a13     =   0.     
 +  0:a14     =   0.        0:a15     =   0.        0:a2      =   0.     
 +  0:a3      =   0.        0:a4      =   0.        0:a5      =   0.     
 +  0:a6      =   0.        0:a7      =   0.        0:a8      =   0.     
 +  0:a9      =   0.        0:b0      =   0.        0:b1      =   0.     
 +  0:b10     =   0.        0:b11     =   0.        0:b12     =   0.     
 +  0:b13     =   0.        0:b14     =   0.        0:b15     =   0.     
 +  0:b2      =   0.        0:b3      =   0.        0:b4      =   0.     
 +  0:b5      =   0.        0:b6      =   0.        0:b7      =   0.     
 +  0:b8      =   0.        0:b9      =   0.        0:c0      =   0.     
 +  0:co0     =  24.0876n   0:co1     =  24.0876n   0:co15    =  42.7189n
 +  0:co2     =  24.0876n   0:co3     =  24.0876n   0:co4     =  24.0876n
 +  0:co5     =  24.0876n   0:co6     =  24.0876n   0:co7     =  24.0876n
 +  0:co_test =  21.3765n   0:g0      =  24.0876n   0:g1      =  24.0876n
 +  0:g2      =  24.0876n   0:g3      =  24.0876n   0:g4      =  24.0876n
 +  0:g5      =  24.0876n   0:g6      =  24.0876n   0:g7      =  24.0876n
 +  0:p0      =  96.3504n   0:p1      =  96.3504n   0:p2      =  96.3504n
 +  0:p3      =  96.3504n   0:p4      =  96.3504n   0:p5      =  96.3504n
 +  0:p6      =  96.3504n   0:p7      =  96.3504n   0:s0      =  96.3504n
 +  0:s1      =  96.3504n   0:s10     =  96.3504n   0:s11     =  96.3504n
 +  0:s12     =  96.3504n   0:s13     =  96.3504n   0:s14     =  96.3504n
 +  0:s15     =  96.3504n   0:s2      =  96.3504n   0:s3      =  96.3504n
 +  0:s4      =  96.3504n   0:s5      =  96.3504n   0:s6      =  96.3504n
 +  0:s7      =  96.3504n   0:s8      =  96.3504n   0:s9      =  96.3504n
 +  0:vdd     =   3.3000    1:a       =   3.3000    1:b       =  32.3433n
 +  1:c       =  48.1752n   1:in1_inv =   3.3000    1:in2_inv =   3.3000 
 +  2:a       =   3.3000    2:b       =  32.3433n   2:c       =  48.1752n
 +  2:in1_inv =   3.3000    2:in2_inv =   3.3000    3:a       =   3.3000 
 +  3:b       =  32.3433n   3:c       =  48.1752n   3:in1_inv =   3.3000 
 +  3:in2_inv =   3.3000    4:a       =   3.3000    4:b       =  32.3433n
 +  4:c       =  48.1752n   4:in1_inv =   3.3000    4:in2_inv =   3.3000 
 +  5:a       =   3.3000    5:b       =  32.3433n   5:c       =  48.1752n
 +  5:in1_inv =   3.3000    5:in2_inv =   3.3000    6:a       =   3.3000 
 +  6:b       =  32.3433n   6:c       =  48.1752n   6:in1_inv =   3.3000 
 +  6:in2_inv =   3.3000    7:a       =   3.3000    7:b       =  32.3433n
 +  7:c       =  48.1752n   7:in1_inv =   3.3000    7:in2_inv =   3.3000 
 +  8:a       =   3.3000    8:b       =  32.3433n   8:c       =  48.1752n
 +  8:in1_inv =   3.3000    8:in2_inv =   3.3000    9:a       = 817.0845m
 +  9:y_inv   =   3.3000   10:a       = 817.0845m  10:y_inv   =   3.3000 
 + 11:a       = 817.0845m  11:y_inv   =   3.3000   12:a       = 817.0845m
 + 12:y_inv   =   3.3000   13:a       = 817.0845m  13:y_inv   =   3.3000 
 + 14:a       = 817.0845m  14:y_inv   =   3.3000   15:a       = 817.0845m
 + 15:y_inv   =   3.3000   16:a       = 817.0845m  16:y_inv   =   3.3000 
 + 17:b       = 679.3376m  17:c       = 806.1547m  17:co_inv  =   3.3000 
 + 17:d       = 857.5919m  17:e       =   1.0394   17:i       =   3.3000 
 + 17:j       =   3.3000   17:k       =   3.3000   17:l       =   3.3000 
 + 18:c       = 684.3712m  18:co_inv  =   3.3000   18:d       = 836.4121m
 + 18:e       =   1.0341   18:j       =   3.3000   18:k       =   3.3000 
 + 18:l       =   3.3000   19:co_inv  =   3.3000   19:d       = 712.0881m
 + 19:e       =   1.0030   19:k       =   3.3000   19:l       =   3.3000 
 + 20:co_inv  =   3.3000   20:e       = 817.0845m  20:l       =   3.3000 
 + 21:b       = 679.3376m  21:c       = 806.1547m  21:co_inv  =   3.3000 
 + 21:d       = 857.5919m  21:e       =   1.0394   21:i       =   3.3000 
 + 21:j       =   3.3000   21:k       =   3.3000   21:l       =   3.3000 
 + 22:c       = 684.3712m  22:co_inv  =   3.3000   22:d       = 836.4121m
 + 22:e       =   1.0341   22:j       =   3.3000   22:k       =   3.3000 
 + 22:l       =   3.3000   23:co_inv  =   3.3000   23:d       = 712.0881m
 + 23:e       =   1.0030   23:k       =   3.3000   23:l       =   3.3000 
 + 24:co_inv  =   3.3000   24:e       = 817.0845m  24:l       =   3.3000 
 + 25:a       =   3.3000   25:b       =  32.3433n  25:c       =  48.1752n
 + 25:in1_inv =   3.3000   25:in2_inv =   3.3000   26:a       =   3.3000 
 + 26:b       =  32.3433n  26:c       =  48.1752n  26:in1_inv =   3.3000 
 + 26:in2_inv =   3.3000   27:a       =   3.3000   27:b       =  32.3433n
 + 27:c       =  48.1752n  27:in1_inv =   3.3000   27:in2_inv =   3.3000 
 + 28:a       =   3.3000   28:b       =  32.3433n  28:c       =  48.1752n
 + 28:in1_inv =   3.3000   28:in2_inv =   3.3000   29:a       =   3.3000 
 + 29:b       =  32.3433n  29:c       =  48.1752n  29:in1_inv =   3.3000 
 + 29:in2_inv =   3.3000   30:a       =   3.3000   30:b       =  32.3433n
 + 30:c       =  48.1752n  30:in1_inv =   3.3000   30:in2_inv =   3.3000 
 + 31:a       =   3.3000   31:b       =  32.3433n  31:c       =  48.1752n
 + 31:in1_inv =   3.3000   31:in2_inv =   3.3000   32:a       =   3.3000 
 + 32:b       =  32.3433n  32:c       =  48.1752n  32:in1_inv =   3.3000 
 + 32:in2_inv =   3.3000   33:co0     =  48.0545n  33:co00    =  37.3833n
 + 33:co01    =  37.9128n  33:co1     =  48.0545n  33:co10    =  37.3833n
 + 33:co11    =  26.7121n  33:co2     =  48.0545n  33:co20    =  37.3833n
 + 33:co21    =  26.7121n  33:co3     =  42.7189n  33:co30    =  32.0477n
 + 33:co31    =  21.3765n  33:co4     =  48.0545n  33:co40    =  37.3833n
 + 33:co41    =  26.7121n  33:co5     =  48.0545n  33:co50    =  37.3833n
 + 33:co51    =  26.7121n  33:co6     =  48.0545n  33:co60    =  37.3833n
 + 33:co61    =  26.7121n  33:co70    =  32.0477n  33:d0      =   3.3000 
 + 33:d1      =   3.3000   33:d2      =   3.3000   33:d3      =   3.3000 
 + 33:d4      =   3.3000   33:d5      =   3.3000   33:d6      =   3.3000 
 + 33:d7      =   3.3000   33:g0_inv  =   3.3000   33:g1_inv  =   3.3000 
 + 33:g2_inv  =   3.3000   33:g3_inv  =   3.3000   33:g4_inv  =   3.3000 
 + 33:g5_inv  =   3.3000   33:g6_inv  =   3.3000   33:g7_inv  =   3.3000 
 + 33:p0      =  96.3504n  33:p1      =  96.3504n  33:p2      =  96.3504n
 + 33:p3      =  96.3504n  33:p4      =  96.3504n  33:p5      =  96.3504n
 + 33:p6      =  96.3504n  33:p7      =  96.3504n  74:a       =   3.3000 
 + 75:a       =   3.3000   76:a       =   3.3000   77:a       =   3.3000 
 + 78:a       =   3.3000   79:a       =   3.3000   80:a       =   3.3000 
 + 81:a       =   3.3000   82:a       =   3.3000   82:b       =  32.3433n
 + 82:c       =  48.1752n  82:in1_inv =   3.3000   82:in2_inv =   3.3000 
 + 83:a       =   3.3000   83:b       =  32.3433n  83:c       =  48.1752n
 + 83:in1_inv =   3.3000   83:in2_inv =   3.3000   84:a       =   3.3000 
 + 84:b       =  32.3433n  84:c       =  48.1752n  84:in1_inv =   3.3000 
 + 84:in2_inv =   3.3000   85:a       =   3.3000   85:b       =  32.3433n
 + 85:c       =  48.1752n  85:in1_inv =   3.3000   85:in2_inv =   3.3000 
 + 86:a       =   3.3000   86:b       =  32.3433n  86:c       =  48.1752n
 + 86:in1_inv =   3.3000   86:in2_inv =   3.3000   87:a       =   3.3000 
 + 87:b       =  32.3433n  87:c       =  48.1752n  87:in1_inv =   3.3000 
 + 87:in2_inv =   3.3000   88:a       =   3.3000   88:b       =  32.3433n
 + 88:c       =  48.1752n  88:in1_inv =   3.3000   88:in2_inv =   3.3000 
 + 89:a       =   3.3000   89:b       =  32.3433n  89:c       =  48.1752n
 + 89:in1_inv =   3.3000   89:in2_inv =   3.3000   90:a       = 817.0845m
 + 91:a       = 817.0845m  92:a       = 817.0845m  93:a       = 817.0845m
 + 94:a       = 817.0845m  95:a       = 817.0845m  96:a       = 817.0845m
 + 97:a       = 817.0845m  98:co3_inv =   3.3000   98:co3_new =  36.1298n
 + 99:co3_inv =   3.3000   99:co3_new =  36.1298n 101:a       =   3.3000 
 +101:b       =  32.3433n 101:c       =  48.1752n 101:in1_inv =   3.3000 
 +101:in2_inv =   3.3000  102:a       =   3.3000  102:b       =  32.3433n
 +102:c       =  48.1752n 102:in1_inv =   3.3000  102:in2_inv =   3.3000 
 +103:a       =   3.3000  103:b       =  32.3433n 103:c       =  48.1752n
 +103:in1_inv =   3.3000  103:in2_inv =   3.3000  104:a       =   3.3000 
 +104:b       =  32.3433n 104:c       =  48.1752n 104:in1_inv =   3.3000 
 +104:in2_inv =   3.3000  105:a       =   3.3000  105:b       =  32.3433n
 +105:c       =  48.1752n 105:in1_inv =   3.3000  105:in2_inv =   3.3000 
 +106:a       =   3.3000  106:b       =  32.3433n 106:c       =  48.1752n
 +106:in1_inv =   3.3000  106:in2_inv =   3.3000  107:a       =   3.3000 
 +107:b       =  32.3433n 107:c       =  48.1752n 107:in1_inv =   3.3000 
 +107:in2_inv =   3.3000  108:a       =   3.3000  108:b       =  32.3433n
 +108:c       =  48.1752n 108:in1_inv =   3.3000  108:in2_inv =   3.3000 
 +125:pi_inv  =   3.3000  126:pi_inv  =   3.3000  127:pi_inv  =   3.3000 
 +128:pi_inv  =   3.3000  131:pi_inv  =   3.3000  132:pi_inv  =   3.3000 
 +133:pi_inv  =   3.3000  134:pi_inv  =   3.3000  135:pi_inv  =   3.3000 
 +136:pi_inv  =   3.3000  137:pi_inv  =   3.3000  138:pi_inv  =   3.3000 
 +141:pi_inv  =   3.3000  142:pi_inv  =   3.3000  143:pi_inv  =   3.3000 
 +144:pi_inv  =   3.3000  145:s_inv   =   3.3000  146:s_inv   =   3.3000 
 +147:s_inv   =   3.3000  148:s_inv   =   3.3000  149:s_inv   =   3.3000 
 +150:s_inv   =   3.3000  151:s_inv   =   3.3000  152:s_inv   =   3.3000 

 ******
 **********************************

 ****** transient analysis tnom=  25.000 temp=  25.000 ******
 t_total=   2.2933n  targ=  22.2883n   trig=  19.9950n
 t_lookahead=   1.2584n  targ=  21.2534n   trig=  19.9950n
 t_select=   2.3613n  targ=  22.3563n   trig=  19.9950n

          ***** job concluded
 ******  
 **********************************

 ****** job statistics summary tnom=  25.000 temp=  25.000 ******

  ******  HSPICE Threads Information  ******

  Command Line Threads Count :     1
  Available CPU Count        :    20
  Actual Threads Count       :     1


  ****** Statistics of Ignored Elements ******
  Voltage Sources :       1

  ******  Circuit Statistics  ******
  # nodes       =     391 # elements   =     793
  # resistors   =       0 # capacitors =       0 # inductors   =       0
  # mutual_inds =       0 # vccs       =       0 # vcvs        =       0
  # cccs        =       0 # ccvs       =       0 # volt_srcs   =      33
  # curr_srcs   =       0 # diodes     =       0 # bjts        =       0
  # jfets       =       0 # mosfets    =     760 # U elements  =       0
  # T elements  =       0 # W elements =       0 # B elements  =       0
  # S elements  =       0 # P elements =       0 # va device   =       0
  # vector_srcs =       0 # N elements =       0


  ******  Runtime Statistics (seconds)  ******

  analysis           time    # points   tot. iter  conv.iter
  op point           0.03           1          43
  transient          0.27       10001         563         201 rev=         2
  readin             0.02
  errchk             0.01
  setup              0.00
  output             0.00


           peak memory used         72.61 megabytes
           total cpu time            0.33 seconds
           total elapsed time        0.35 seconds
           job started at     17:21:42 12/28/2023
           job ended   at     17:21:43 12/28/2023
           job total runtime         0.35 seconds


  lic: Release hspice token(s) 
 lic: total license checkout elapse time:        0.02(s)
