 ****** HSPICE -- P-2019.06-SP1-1 win64 (Sep 27 2019) ******                    
  Copyright (c) 1986 - 2023 by Synopsys, Inc. All Rights Reserved.              
  This software and the associated documentation are proprietary
  to Synopsys, Inc. This software may only be used in accordance
  with the terms and conditions of a written license agreement with
  Synopsys, Inc. All other use, reproduction, or distribution of
  this software is strictly prohibited.
  Input File: final.sp                                                          
  Command line options: D:\Software\HSPICE\Hspice\Hspice_P-2019.06-SP1-1\WIN64\hspice.com -i final.sp -o E:\WorkStation\Digital IC\src\final\hspice\final.lis
  Start time: Wed Dec 27 15:44:36 2023
  lic:  
  lic: FLEXlm: SDK_12.3 
  lic: USER:   Winter               HOSTNAME: Marvel 
  lic: HOSTID: "f4267972055f"       PID:      41832 
  lic: Using FLEXlm license file: 
  lic: 27000@Marvel 
  lic: Checkout 1 hspice 
  lic: License/Maintenance for hspice will expire on 30-dec-2030/2030.12 
  lic: 1(in_use)/99(total) FLOATING license(s) on SERVER 27000@Marvel 
  lic:   
1****** HSPICE -- P-2019.06-SP1-1 win64 (Sep 27 2019) ******                    
 ******  
 **********************************

 ****** circuit name directory
 circuit number to circuit name directory
   number circuitname                     definition         multiplier
        0 main circuit
        1 xpass0.                         xor2               1.00 
        2 xpass1.                         xor2               1.00 
        3 xpass2.                         xor2               1.00 
        4 xpass3.                         xor2               1.00 
        5 xpass4.                         xor2               1.00 
        6 xpass5.                         xor2               1.00 
        7 xpass6.                         xor2               1.00 
        8 xpass7.                         xor2               1.00 
        9 xgen0.                          and2               1.00 
       10 xgen1.                          and2               1.00 
       11 xgen2.                          and2               1.00 
       12 xgen3.                          and2               1.00 
       13 xgen4.                          and2               1.00 
       14 xgen5.                          and2               1.00 
       15 xgen6.                          and2               1.00 
       16 xgen7.                          and2               1.00 
       17 xco7.                           cla7               1.00 
       18 xco6.                           cla6               1.00 
       19 xco5.                           cla5               1.00 
       20 xco4.                           cla4               1.00 
       21 xco3.                           cla3               1.00 
       22 xco2.                           cla2               1.00 
       23 xco1.                           cla1               1.00 
       24 xco0.                           cla0               1.00 
       25 xs0.                            xor2               1.00 
       26 xs1.                            xor2               1.00 
       27 xs2.                            xor2               1.00 
       28 xs3.                            xor2               1.00 
       29 xs4.                            xor2               1.00 
       30 xs5.                            xor2               1.00 
       31 xs6.                            xor2               1.00 
       32 xs7.                            xor2               1.00 
       33 x1.                             csa4               1.00 
       34 x2.                             csa4               1.00 
       35 xpass0.x1.                      inv                1.00 
       36 xpass0.x2.                      inv                1.00 
       37 xpass1.x1.                      inv                1.00 
       38 xpass1.x2.                      inv                1.00 
       39 xpass2.x1.                      inv                1.00 
       40 xpass2.x2.                      inv                1.00 
       41 xpass3.x1.                      inv                1.00 
       42 xpass3.x2.                      inv                1.00 
       43 xpass4.x1.                      inv                1.00 
       44 xpass4.x2.                      inv                1.00 
       45 xpass5.x1.                      inv                1.00 
       46 xpass5.x2.                      inv                1.00 
       47 xpass6.x1.                      inv                1.00 
       48 xpass6.x2.                      inv                1.00 
       49 xpass7.x1.                      inv                1.00 
       50 xpass7.x2.                      inv                1.00 
       51 xco7.x1.                        inv                1.00 
       52 xco6.x1.                        inv                1.00 
       53 xco5.x1.                        inv                1.00 
       54 xco4.x1.                        inv                1.00 
       55 xco3.x1.                        inv                1.00 
       56 xco2.x1.                        inv                1.00 
       57 xco1.x1.                        inv                1.00 
       58 xco0.x1.                        inv                1.00 
       59 xs0.x1.                         inv                1.00 
       60 xs0.x2.                         inv                1.00 
       61 xs1.x1.                         inv                1.00 
       62 xs1.x2.                         inv                1.00 
       63 xs2.x1.                         inv                1.00 
       64 xs2.x2.                         inv                1.00 
       65 xs3.x1.                         inv                1.00 
       66 xs3.x2.                         inv                1.00 
       67 xs4.x1.                         inv                1.00 
       68 xs4.x2.                         inv                1.00 
       69 xs5.x1.                         inv                1.00 
       70 xs5.x2.                         inv                1.00 
       71 xs6.x1.                         inv                1.00 
       72 xs6.x2.                         inv                1.00 
       73 xs7.x1.                         inv                1.00 
       74 xs7.x2.                         inv                1.00 
       75 x1.xdel0.                       nor2               1.00 
       76 x1.xdel1.                       nor2               1.00 
       77 x1.xdel2.                       nor2               1.00 
       78 x1.xdel3.                       nor2               1.00 
       79 x1.xpass0.                      xor2               1.00 
       80 x1.xpass1.                      xor2               1.00 
       81 x1.xpass2.                      xor2               1.00 
       82 x1.xpass3.                      xor2               1.00 
       83 x1.xgen0.                       nand2              1.00 
       84 x1.xgen1.                       nand2              1.00 
       85 x1.xgen2.                       nand2              1.00 
       86 x1.xgen3.                       nand2              1.00 
       87 x1.xcarry00.                    manchester4        1.00 
       88 x1.xcarry01.                    manchester4        1.00 
       89 x1.xmux.                        multiplexer        1.00 
       90 x1.xs0.                         xor2               1.00 
       91 x1.xs1.                         xor2               1.00 
       92 x1.xs2.                         xor2               1.00 
       93 x1.xs3.                         xor2               1.00 
       94 x2.xdel0.                       nor2               1.00 
       95 x2.xdel1.                       nor2               1.00 
       96 x2.xdel2.                       nor2               1.00 
       97 x2.xdel3.                       nor2               1.00 
       98 x2.xpass0.                      xor2               1.00 
       99 x2.xpass1.                      xor2               1.00 
      100 x2.xpass2.                      xor2               1.00 
      101 x2.xpass3.                      xor2               1.00 
      102 x2.xgen0.                       nand2              1.00 
      103 x2.xgen1.                       nand2              1.00 
      104 x2.xgen2.                       nand2              1.00 
      105 x2.xgen3.                       nand2              1.00 
      106 x2.xcarry00.                    manchester4        1.00 
      107 x2.xcarry01.                    manchester4        1.00 
      108 x2.xmux.                        multiplexer        1.00 
      109 x2.xs0.                         xor2               1.00 
      110 x2.xs1.                         xor2               1.00 
      111 x2.xs2.                         xor2               1.00 
      112 x2.xs3.                         xor2               1.00 
      113 x1.xpass0.x1.                   inv                1.00 
      114 x1.xpass0.x2.                   inv                1.00 
      115 x1.xpass1.x1.                   inv                1.00 
      116 x1.xpass1.x2.                   inv                1.00 
      117 x1.xpass2.x1.                   inv                1.00 
      118 x1.xpass2.x2.                   inv                1.00 
      119 x1.xpass3.x1.                   inv                1.00 
      120 x1.xpass3.x2.                   inv                1.00 
      121 x1.xcarry00.x1.                 manchester         1.00 
      122 x1.xcarry00.x2.                 manchester         1.00 
      123 x1.xcarry00.x3.                 manchester         1.00 
      124 x1.xcarry00.x4.                 manchester         1.00 
      125 x1.xcarry01.x1.                 manchester         1.00 
      126 x1.xcarry01.x2.                 manchester         1.00 
      127 x1.xcarry01.x3.                 manchester         1.00 
      128 x1.xcarry01.x4.                 manchester         1.00 
      129 x1.xmux.x1.                     mux                1.00 
      130 x1.xmux.x2.                     mux                1.00 
      131 x1.xmux.x3.                     mux                1.00 
      132 x1.xmux.x4.                     mux                1.00 
      133 x1.xs0.x1.                      inv                1.00 
      134 x1.xs0.x2.                      inv                1.00 
      135 x1.xs1.x1.                      inv                1.00 
      136 x1.xs1.x2.                      inv                1.00 
      137 x1.xs2.x1.                      inv                1.00 
      138 x1.xs2.x2.                      inv                1.00 
      139 x1.xs3.x1.                      inv                1.00 
      140 x1.xs3.x2.                      inv                1.00 
      141 x2.xpass0.x1.                   inv                1.00 
      142 x2.xpass0.x2.                   inv                1.00 
      143 x2.xpass1.x1.                   inv                1.00 
      144 x2.xpass1.x2.                   inv                1.00 
      145 x2.xpass2.x1.                   inv                1.00 
      146 x2.xpass2.x2.                   inv                1.00 
      147 x2.xpass3.x1.                   inv                1.00 
      148 x2.xpass3.x2.                   inv                1.00 
      149 x2.xcarry00.x1.                 manchester         1.00 
      150 x2.xcarry00.x2.                 manchester         1.00 
      151 x2.xcarry00.x3.                 manchester         1.00 
      152 x2.xcarry00.x4.                 manchester         1.00 
      153 x2.xcarry01.x1.                 manchester         1.00 
      154 x2.xcarry01.x2.                 manchester         1.00 
      155 x2.xcarry01.x3.                 manchester         1.00 
      156 x2.xcarry01.x4.                 manchester         1.00 
      157 x2.xmux.x1.                     mux                1.00 
      158 x2.xmux.x2.                     mux                1.00 
      159 x2.xmux.x3.                     mux                1.00 
      160 x2.xmux.x4.                     mux                1.00 
      161 x2.xs0.x1.                      inv                1.00 
      162 x2.xs0.x2.                      inv                1.00 
      163 x2.xs1.x1.                      inv                1.00 
      164 x2.xs1.x2.                      inv                1.00 
      165 x2.xs2.x1.                      inv                1.00 
      166 x2.xs2.x2.                      inv                1.00 
      167 x2.xs3.x1.                      inv                1.00 
      168 x2.xs3.x2.                      inv                1.00 
      169 x1.xcarry00.x1.x1.              inv                1.00 
      170 x1.xcarry00.x1.x2.              inv                1.00 
      171 x1.xcarry00.x1.x3.              inv                1.00 
      172 x1.xcarry00.x2.x1.              inv                1.00 
      173 x1.xcarry00.x2.x2.              inv                1.00 
      174 x1.xcarry00.x2.x3.              inv                1.00 
      175 x1.xcarry00.x3.x1.              inv                1.00 
      176 x1.xcarry00.x3.x2.              inv                1.00 
      177 x1.xcarry00.x3.x3.              inv                1.00 
      178 x1.xcarry00.x4.x1.              inv                1.00 
      179 x1.xcarry00.x4.x2.              inv                1.00 
      180 x1.xcarry00.x4.x3.              inv                1.00 
      181 x1.xcarry01.x1.x1.              inv                1.00 
      182 x1.xcarry01.x1.x2.              inv                1.00 
      183 x1.xcarry01.x1.x3.              inv                1.00 
      184 x1.xcarry01.x2.x1.              inv                1.00 
      185 x1.xcarry01.x2.x2.              inv                1.00 
      186 x1.xcarry01.x2.x3.              inv                1.00 
      187 x1.xcarry01.x3.x1.              inv                1.00 
      188 x1.xcarry01.x3.x2.              inv                1.00 
      189 x1.xcarry01.x3.x3.              inv                1.00 
      190 x1.xcarry01.x4.x1.              inv                1.00 
      191 x1.xcarry01.x4.x2.              inv                1.00 
      192 x1.xcarry01.x4.x3.              inv                1.00 
      193 x1.xmux.x1.x1.                  inv                1.00 
      194 x1.xmux.x1.x2.                  inv                1.00 
      195 x1.xmux.x1.x3.                  inv                1.00 
      196 x1.xmux.x2.x1.                  inv                1.00 
      197 x1.xmux.x2.x2.                  inv                1.00 
      198 x1.xmux.x2.x3.                  inv                1.00 
      199 x1.xmux.x3.x1.                  inv                1.00 
      200 x1.xmux.x3.x2.                  inv                1.00 
      201 x1.xmux.x3.x3.                  inv                1.00 
      202 x1.xmux.x4.x1.                  inv                1.00 
      203 x1.xmux.x4.x2.                  inv                1.00 
      204 x1.xmux.x4.x3.                  inv                1.00 
      205 x2.xcarry00.x1.x1.              inv                1.00 
      206 x2.xcarry00.x1.x2.              inv                1.00 
      207 x2.xcarry00.x1.x3.              inv                1.00 
      208 x2.xcarry00.x2.x1.              inv                1.00 
      209 x2.xcarry00.x2.x2.              inv                1.00 
      210 x2.xcarry00.x2.x3.              inv                1.00 
      211 x2.xcarry00.x3.x1.              inv                1.00 
      212 x2.xcarry00.x3.x2.              inv                1.00 
      213 x2.xcarry00.x3.x3.              inv                1.00 
      214 x2.xcarry00.x4.x1.              inv                1.00 
      215 x2.xcarry00.x4.x2.              inv                1.00 
      216 x2.xcarry00.x4.x3.              inv                1.00 
      217 x2.xcarry01.x1.x1.              inv                1.00 
      218 x2.xcarry01.x1.x2.              inv                1.00 
      219 x2.xcarry01.x1.x3.              inv                1.00 
      220 x2.xcarry01.x2.x1.              inv                1.00 
      221 x2.xcarry01.x2.x2.              inv                1.00 
      222 x2.xcarry01.x2.x3.              inv                1.00 
      223 x2.xcarry01.x3.x1.              inv                1.00 
      224 x2.xcarry01.x3.x2.              inv                1.00 
      225 x2.xcarry01.x3.x3.              inv                1.00 
      226 x2.xcarry01.x4.x1.              inv                1.00 
      227 x2.xcarry01.x4.x2.              inv                1.00 
      228 x2.xcarry01.x4.x3.              inv                1.00 
      229 x2.xmux.x1.x1.                  inv                1.00 
      230 x2.xmux.x1.x2.                  inv                1.00 
      231 x2.xmux.x1.x3.                  inv                1.00 
      232 x2.xmux.x2.x1.                  inv                1.00 
      233 x2.xmux.x2.x2.                  inv                1.00 
      234 x2.xmux.x2.x3.                  inv                1.00 
      235 x2.xmux.x3.x1.                  inv                1.00 
      236 x2.xmux.x3.x2.                  inv                1.00 
      237 x2.xmux.x3.x3.                  inv                1.00 
      238 x2.xmux.x4.x1.                  inv                1.00 
      239 x2.xmux.x4.x2.                  inv                1.00 
      240 x2.xmux.x4.x3.                  inv                1.00 
 ******  
 **********************************

 ****** mos   model parameters tnom=  25.000 temp=  25.000 ******
 ***************************************************************************
 ***        model parameters  model name:   0:nmos_3p3 model type:nmos   ***
 ***************************************************************************

   *** general parameters ***
    deriv=   0.           

   ***  level 53  model parameters  ***

       hspver=       98.2               level=         53         
      version=        3.3            paramchk=          1         
       apwarn=          1                lite=          0         
       vgslim=          0             binUnit=          2         
       capMod=          3               xpart=          0         
       mobMod=          1              nqsMod=          0         
     acnqsMod=          0              stiMod=          0         
          elm=          5            sfvtflag=          0         
          tox=   7.69e-09 meter            xj=      1e-07 meter   
      binflag=          0                lmin=          0 meter   
         lmax=          0 meter          wmin=          0 meter   
         wmax=          0 meter          lref=          0 meter   
         wref=          0 meter          lint=  4.124e-08 meter   
         wint=    6.3e-08 meter         lmult=          1         
        wmult=          1                  ll=    7.5e-15         
          lln=          1                  lw=          0         
          lwn=          1                 lwl=3.50365e-21         
           wl=          0                 wln=          1         
           ww=-4.75109e-10                 wwn=   0.229655         
          wwl=          0                 dwg= 3.9968e-15 m/V     
          dwb=   9.03e-09 m/V^1/2          xl=          0         
           xw=          0                  a0=    1.19169         
          ags=      0.255 V^-1             b0=   5.12e-08 meter   
           b1=          0 meter          keta=  -0.011081 V^-1    
         voff=  -0.133825 V             ngate=      1e+23 cm^-3   
          vbx=          0 V               vbm=         -3 V       
           xt=   1.55e-07 meter          vth0=     0.6053 V       
          nch= 2.0857e+17 cm^-3          nsub=      6e+16 cm^-3   
          nlx=1.24779e-07 meter        gamma1=          0 V^-1/2  
       gamma2=          0 V^-1/2           k1=      0.678 V^1/2   
           k2=          0                  k3=   8.25e-06         
          k3b=         21 V^-1             w0= 8.6645e-06 meter   
         dvt0=       4.95                dvt1=   0.786824         
         dvt2=      -0.05 V^-1          dvt0w=4.31371e-17 meter^-1
        dvt1w=     702321 meter^-1      dvt2w=      -0.05 V^-1    
         dsub=   0.779651                eta0=  0.0958194         
         etab=    -0.0384 V^-1             u0=  0.0413717 m^2/V/sec
           ua=-4.76216e-10 m/V              ub=2.54186e-18 (m/V)^2 
           uc=7.87484e-11 V^-1           vsat=     100790 m/sec   
           a1=          0 v^-1             a2=          1         
        delta= 0.00214501 V              rdsw=       1146 ohm-um  
         prwg=-3.25963e-09 V^-1           prwb=     0.0295 V^-1/2  
           wr=          1                pclm=    1.08382         
      pdiblc1= 0.00332566             pdiblc2= 0.00106738         
      pdiblcb=          0 V^-1         pscbe1= 8.5164e+08 V/m     
       pscbe2=4.28628e-05 V/m           drout=  0.0959511         
         pvag=  0.0707466             nfactor=    0.88752         
         cdsc=0.000640402 f/m^2         cdscb=          0 f/V/m^2 
        cdscd=          0 f/V/m^2         cit=          0 f/m^2   
       alpha0=    1.1e-06 m/V           beta0=    22.4854 V       
          dlc=    1.3e-09 meter           dwc=    6.3e-08 meter   
          clc=      1e-07 meter           cle=        0.6         
         cgso=   1.06e-10 f/m            cgdo=   1.06e-10 f/m     
         cgbo=      1e-13 f/m            cgsl=    2.2e-10 f/m     
         cgdl=    2.2e-10 f/m          ckappa=        0.6         
           cf=          0 f/m            acde=        0.5 m/V     
         moin=         15 V^1/2          toxm=   7.69e-09 m       
       dtoxcv=          0 m               vfb=  -0.877122 V       
       alpha1=    4.77572 1/V            ijth=        0.1 A       
         noff=          1              voffcv=          0         
          tcj=0.000962614 1/K           tcjsw=0.000762213 1/K     
       tcjswg=          0 1/K             tpb= 0.00157771 V/K     
        tpbsw= 0.00234127 V/K          tpbswg=          0 V/K     
          llc=          0                 lwc=          0         
         lwlc=          0                 wlc=          0         
          wwc=          0                wwlc=          0         
         tnom=     298.15 K               kt1=   -0.27825 V       
         kt1l=-2.21917e-08                 kt2=      -0.02         
          ute=   -1.72434                 ua1=-4.54604e-13 m/V     
          ub1=3.34602e-21 (m/V)^2         uc1=-7.62893e-12 m/V^2   
           at=      34000 m/s             prt=     390.55         
          using Berkeley noise model       noiMod=          2         
         noia=      8e+18                noib=       7000         
         noic=    1.4e-13                  em=    4.1e+07         
           ef=       0.99                  af=          1         
           kf=          0             lintnoi=          0         
       gdsnoi=-1.23457e-29         
          using Berkeley diodes          using ACM 
          acm=        12                 hdif=   3.5e-07 meter    
         ldif=         0 meter             js=  3.05e-07 amp/m^2  
          jsw=   1.4e-13 amp/m            xti=         3          
           nj=    0.9935                   cj=0.00102391 f/m^2    
           mj=  0.349465                   pb=  0.727154 V        
         cjsw=2.26855e-10 f/m             mjsw=   0.26934          
          php (not used)                  pbsw=  0.949725 V        
       cjgate (not used)                 cjswg=2.26855e-10 f/m      
        mjswg=   0.26934                pbswg=  0.949725 V        
        lketa=      4e-09               lrdsw=   -2.4e-05         
       lbeta0=      8e-08                lkt1=  1.218e-08         
         lkt2=     -1e-08             lalpha1=   -3.7e-07         
        wvsat=     0.0225               wrdsw=  -0.000192         
         wute=      8e-08                pags=   -2.5e-14         
        pketa=   1.65e-15               pdvt0=     -4e-14         
        peta0=  -3.36e-15               petab=      2e-15         
          pub=   -1.8e-32                 puc=     -3e-24         
        prdsw=      1e-11             palpha0=    1.5e-19         
      palpha1=   -8.2e-13         
 ***************************************************************************
 ***        model parameters  model name:   0:pmos_3p3 model type:pmos   ***
 ***************************************************************************

   *** general parameters ***
    deriv=   0.           

   ***  level 53  model parameters  ***

       hspver=       98.2               level=         53         
      version=        3.3            paramchk=          1         
       apwarn=          1                lite=          0         
       vgslim=          0             binUnit=          2         
       capMod=          3               xpart=          0         
       mobMod=          1              nqsMod=          0         
     acnqsMod=          0              stiMod=          0         
          elm=          5            sfvtflag=          0         
          tox=   8.69e-09 meter            xj=      1e-07 meter   
      binflag=          0                lmin=          0 meter   
         lmax=          0 meter          wmin=          0 meter   
         wmax=          0 meter          lref=          0 meter   
         wref=          0 meter          lint=-2.5226e-08 meter   
         wint=   4.99e-08 meter         lmult=          1         
        wmult=          1                  ll=          0         
          lln=          1                  lw=   -3.5e-15         
          lwn=   0.969037                 lwl= 2.5025e-20         
           wl=   5.49e-14                 wln=     1.1132         
           ww=  -3.75e-09                 wwn=        0.1         
          wwl=   -1.2e-14                 dwg=     -2e-08 m/V     
          dwb=          0 m/V^1/2          xl=          0         
           xw=          0                  a0=    1.56492         
          ags=     0.3275 V^-1             b0=   5.12e-07 meter   
           b1=    6.5e-07 meter          keta= -0.0166773 V^-1    
         voff=    -0.1239 V             ngate=      1e+23 cm^-3   
          vbx=          0 V               vbm=         -3 V       
           xt=   1.55e-07 meter          vth0=     -0.845 V       
          nch=   6.93e+16 cm^-3          nsub=      6e+16 cm^-3   
          nlx=   1.92e-07 meter        gamma1=          0 V^-1/2  
       gamma2=          0 V^-1/2           k1=     0.4883 V^1/2   
           k2=    -0.0001                  k3=       0.71         
          k3b=      0.224 V^-1             w0=          0 meter   
         dvt0=     2.4753                dvt1=     0.3918         
         dvt2=      0.015 V^-1          dvt0w=    -0.5864 meter^-1
        dvt1w=     570000 meter^-1      dvt2w=      -0.05 V^-1    
         dsub=   0.700386                eta0=  0.0791148         
         etab=          0 V^-1             u0=     0.0277 m^2/V/sec
           ua=   3.14e-09 m/V              ub=   6.95e-19 (m/V)^2 
           uc=   1.07e-10 V^-1           vsat=     230000 m/sec   
           a1=          0 v^-1             a2=      0.296         
        delta=       0.01 V              rdsw=       1790 ohm-um  
         prwg=          0 V^-1           prwb=     0.1194 V^-1/2  
           wr=     0.9209                pclm=    3.25804         
      pdiblc1=  0.0155649             pdiblc2=0.000260376         
      pdiblcb=  -0.148745 V^-1         pscbe1=5.87558e+08 V/m     
       pscbe2=      1e-08 V/m           drout=   0.166636         
         pvag=    3.66097             nfactor=          1         
         cdsc=  0.0009312 f/m^2         cdscb= 0.00028855 f/V/m^2 
        cdscd=          0 f/V/m^2         cit=  0.0003675 f/m^2   
       alpha0=      2e-09 m/V           beta0=       28.8 V       
          dlc=     -6e-09 meter           dwc=   4.99e-08 meter   
          clc=      1e-07 meter           cle=        0.6         
         cgso=   1.05e-10 f/m            cgdo=   1.05e-10 f/m     
         cgbo=      1e-13 f/m            cgsl=    1.5e-10 f/m     
         cgdl=    1.5e-10 f/m          ckappa=        0.6         
           cf=          0 f/m            acde=        0.5 m/V     
         moin=         15 V^1/2          toxm=   8.69e-09 m       
       dtoxcv=          0 m               vfb=  -0.402989 V       
       alpha1=       0.27 1/V            ijth=        0.1 A       
         noff=          2              voffcv=      -0.03         
          tcj=0.000948968 1/K           tcjsw=0.000701637 1/K     
       tcjswg=          0 1/K             tpb= 0.00161208 V/K     
        tpbsw= 0.00111539 V/K          tpbswg=          0 V/K     
          llc=          0                 lwc=          0         
         lwlc=          0                 wlc=          0         
          wwc=          0                wwlc=          0         
         tnom=     298.15 K               kt1=      -0.56 V       
         kt1l=          0                 kt2=     -0.046         
          ute=      -1.49                 ua1=   2.58e-09 m/V     
          ub1=-5.6795e-18 (m/V)^2         uc1=   -5.4e-10 m/V^2   
           at=     136000 m/s             prt=          0         
          using Berkeley noise model       noiMod=          2         
         noia=      5e+18                noib=      20000         
         noic=      9e-14                  em=    4.1e+07         
           ef=          1                  af=          1         
           kf=          0             lintnoi=          0         
       gdsnoi=-1.23457e-29         
          using Berkeley diodes          using ACM 
          acm=        12                 hdif=   3.5e-07 meter    
         ldif=         0 meter             js=  2.18e-07 amp/m^2  
          jsw=     1e-13 amp/m            xti=         3          
           nj=         1                   cj=0.00122954 f/m^2    
           mj=  0.414916                   pb=  0.848885 V        
         cjsw=3.63341e-10 f/m             mjsw=  0.293826          
          php (not used)                  pbsw=  0.664886 V        
       cjgate (not used)                 cjswg=3.63341e-10 f/m      
        mjswg=  0.293826                pbswg=  0.664886 V        
         lags=   1.53e-07                 lk1=      1e-09         
        leta0=    4.1e-08               lrdsw=   -0.00022         
       lbeta0=   -1.1e-06                lute=      1e-07         
         lub1=     -9e-25                luc1=4.49945e-17         
         wdwb=      6e-15                wub1=   3.32e-25         
         wuc1=    1.1e-16                wprt=    0.00045         
      walpha1=     -6e-08                pdwb=     -5e-22         
        peta0=   -1.3e-14               pvsat=    3.5e-09         
     pnfactor=   -3.5e-14                pkt1=1.99999e-15         
         pute=     -1e-14                pua1=-5.4955e-23         
         pub1=    1.3e-31                puc1=  -9.91e-24         
          pat=     -2e-09                pprt=     -5e-11         
  **info** (final.sp:467) DC voltage reset to initial transient source value in source 0:va0. new dc=0.0000D+00
  **warning** (final.sp:450) Both nodes of element vgnd are connected together; Line ignored.
 

 Warning: Eta0 = -0.0259881 is negative in BSIM3 model 0:pmos_3p3 with W = 3.5e-07, L = 3.5e-07.
  **warning** (final.sp:504) Unable to find referenced node y_inv; Output variable ignored. Specify a valid node.
  
      
 **info** set option symb=1 internally to help for convergence.
 *****************************************************************
 ******  option summary
 ******
 runlvl  = 3         bypass  = 2.0000    
  Opening plot unit= 79
 file=E:\WorkStation\Digital IC\src\final\hspice\final.pa0

 **info** dc convergence successful at Newton-Raphson method 
 ******  
 **********************************

 ****** operating point information tnom=  25.000 temp=  25.000 ******
 ****** operating point status is voltage   simulation time is     0.     
      node    =voltage        node    =voltage        node    =voltage

 +  0:a0      =   0.        0:a1      =   0.        0:a10     =   0.     
 +  0:a11     =   0.        0:a12     =   0.        0:a13     =   0.     
 +  0:a14     =   0.        0:a15     =   0.        0:a2      =   0.     
 +  0:a3      =   0.        0:a4      =   0.        0:a5      =   0.     
 +  0:a6      =   0.        0:a7      =   0.        0:a8      =   0.     
 +  0:a9      =   0.        0:b0      =   0.        0:b1      =   0.     
 +  0:b10     =   0.        0:b11     =   0.        0:b12     =   0.     
 +  0:b13     =   0.        0:b14     =   0.        0:b15     =   0.     
 +  0:b2      =   0.        0:b3      =   0.        0:b4      =   0.     
 +  0:b5      =   0.        0:b6      =   0.        0:b7      =   0.     
 +  0:b8      =   0.        0:b9      =   0.        0:c0      =   0.     
 +  0:co0     =  24.0876n   0:co1     =  24.0876n   0:co11    =  24.0876n
 +  0:co15    =  24.0876n   0:co2     =  24.0876n   0:co3     =  24.0876n
 +  0:co4     =  24.0876n   0:co5     =  24.0876n   0:co6     =  24.0876n
 +  0:co7     =  24.0876n   0:g0      =  24.0876n   0:g1      =  24.0876n
 +  0:g2      =  24.0876n   0:g3      =  24.0876n   0:g4      =  24.0876n
 +  0:g5      =  24.0876n   0:g6      =  24.0876n   0:g7      =  24.0876n
 +  0:p0      =  96.3504n   0:p1      =  96.3504n   0:p2      =  96.3504n
 +  0:p3      =  96.3504n   0:p4      =  96.3504n   0:p5      =  96.3504n
 +  0:p6      =  96.3504n   0:p7      =  96.3504n   0:s0      =  96.3504n
 +  0:s1      =  96.3504n   0:s10     =  96.3504n   0:s11     =  96.3504n
 +  0:s12     =  96.3504n   0:s13     =  96.3504n   0:s14     =  96.3504n
 +  0:s15     =  96.3504n   0:s2      =  96.3504n   0:s3      =  96.3504n
 +  0:s4      =  96.3504n   0:s5      =  96.3504n   0:s6      =  96.3504n
 +  0:s7      =  96.3504n   0:s8      =  96.3504n   0:s9      =  96.3504n
 +  0:vdd     =   3.3000    1:a       =   3.3000    1:b       =  32.3433n
 +  1:c       =  48.1752n   1:in1_inv =   3.3000    1:in2_inv =   3.3000 
 +  2:a       =   3.3000    2:b       =  32.3433n   2:c       =  48.1752n
 +  2:in1_inv =   3.3000    2:in2_inv =   3.3000    3:a       =   3.3000 
 +  3:b       =  32.3433n   3:c       =  48.1752n   3:in1_inv =   3.3000 
 +  3:in2_inv =   3.3000    4:a       =   3.3000    4:b       =  32.3433n
 +  4:c       =  48.1752n   4:in1_inv =   3.3000    4:in2_inv =   3.3000 
 +  5:a       =   3.3000    5:b       =  32.3433n   5:c       =  48.1752n
 +  5:in1_inv =   3.3000    5:in2_inv =   3.3000    6:a       =   3.3000 
 +  6:b       =  32.3433n   6:c       =  48.1752n   6:in1_inv =   3.3000 
 +  6:in2_inv =   3.3000    7:a       =   3.3000    7:b       =  32.3433n
 +  7:c       =  48.1752n   7:in1_inv =   3.3000    7:in2_inv =   3.3000 
 +  8:a       =   3.3000    8:b       =  32.3433n   8:c       =  48.1752n
 +  8:in1_inv =   3.3000    8:in2_inv =   3.3000    9:a       =   1.6397 
 +  9:y_inv   =   3.3000   10:a       =   1.6397   10:y_inv   =   3.3000 
 + 11:a       =   1.6397   11:y_inv   =   3.3000   12:a       =   1.6397 
 + 12:y_inv   =   3.3000   13:a       =   1.6397   13:y_inv   =   3.3000 
 + 14:a       =   1.6397   14:y_inv   =   3.3000   15:a       =   1.6397 
 + 15:y_inv   =   3.3000   16:a       =   1.6397   16:y_inv   =   3.3000 
 + 17:1       =   3.2292   17:2       =   3.3000   17:3       =   3.1148 
 + 17:4       =   3.3000   17:5       =   2.8151   17:6       =   3.3000 
 + 17:7       =   2.0306   17:8       =   3.3000   17:b       =   3.2729 
 + 17:c       =   3.2896   17:co_inv  =   3.3000   17:d       =   3.2958 
 + 17:e       =   3.2979   17:i       =   3.3000   17:j       =   3.3000 
 + 17:k       =   3.3000   17:l       =   3.3000   18:1       =   3.1148 
 + 18:2       =   3.3000   18:3       =   2.8151   18:4       =   3.3000 
 + 18:5       =   2.0306   18:6       =   3.3000   18:b       =   3.2292 
 + 18:c       =   3.2728   18:co_inv  =   3.3000   18:d       =   3.2891 
 + 18:e       =   3.2946   18:i       =   3.3000   18:j       =   3.3000 
 + 18:k       =   3.3000   18:l       =   3.3000   19:1       =   2.8151 
 + 19:2       =   3.3000   19:3       =   2.0306   19:4       =   3.3000 
 + 19:b       =   3.1146   19:c       =   3.2287   19:co_inv  =   3.3000 
 + 19:d       =   3.2715   19:e       =   3.2857   19:i       =   3.3000 
 + 19:j       =   3.3000   19:k       =   3.3000   19:l       =   3.3000 
 + 20:1       =   2.0305   20:2       =   3.3000   20:b       =   2.8146 
 + 20:c       =   3.1133   20:co_inv  =   3.3000   20:d       =   3.2253 
 + 20:e       =   3.2627   20:i       =   3.3000   20:j       =   3.3000 
 + 20:k       =   3.3000   20:l       =   3.3000   21:b       =   2.0294 
 + 21:c       =   2.8113   21:co_inv  =   3.3000   21:d       =   3.1045 
 + 21:e       =   3.2023   21:i       =   3.3000   21:j       =   3.3000 
 + 21:k       =   3.3000   21:l       =   3.3000   22:c       =   2.0219 
 + 22:co_inv  =   3.3000   22:d       =   2.7887   22:e       =   3.0444 
 + 22:j       =   3.3000   22:k       =   3.3000   22:l       =   3.3000 
 + 23:co_inv  =   3.3000   23:d       =   1.9709   23:e       =   2.6354 
 + 23:k       =   3.3000   23:l       =   3.3000   24:co_inv  =   3.3000 
 + 24:e       =   1.6397   24:l       =   3.3000   25:a       =   3.3000 
 + 25:b       =  32.3433n  25:c       =  48.1752n  25:in1_inv =   3.3000 
 + 25:in2_inv =   3.3000   26:a       =   3.3000   26:b       =  32.3433n
 + 26:c       =  48.1752n  26:in1_inv =   3.3000   26:in2_inv =   3.3000 
 + 27:a       =   3.3000   27:b       =  32.3433n  27:c       =  48.1752n
 + 27:in1_inv =   3.3000   27:in2_inv =   3.3000   28:a       =   3.3000 
 + 28:b       =  32.3433n  28:c       =  48.1752n  28:in1_inv =   3.3000 
 + 28:in2_inv =   3.3000   29:a       =   3.3000   29:b       =  32.3433n
 + 29:c       =  48.1752n  29:in1_inv =   3.3000   29:in2_inv =   3.3000 
 + 30:a       =   3.3000   30:b       =  32.3433n  30:c       =  48.1752n
 + 30:in1_inv =   3.3000   30:in2_inv =   3.3000   31:a       =   3.3000 
 + 31:b       =  32.3433n  31:c       =  48.1752n  31:in1_inv =   3.3000 
 + 31:in2_inv =   3.3000   32:a       =   3.3000   32:b       =  32.3433n
 + 32:c       =  48.1752n  32:in1_inv =   3.3000   32:in2_inv =   3.3000 
 + 33:co0     =  24.0876n  33:co00    = 177.0562m  33:co01    =   1.0657 
 + 33:co1     =  24.0876n  33:co10    =  24.0876n  33:co11    =  24.0876n
 + 33:co2     =  24.0876n  33:co20    =  24.0876n  33:co21    =  24.0876n
 + 33:co30    =  24.0876n  33:co31    =  24.0876n  33:d0      =   3.3000 
 + 33:d1      =   3.3000   33:d2      =   3.3000   33:d3      =   3.3000 
 + 33:g0_inv  =   3.3000   33:g1_inv  =   3.3000   33:g2_inv  =   3.3000 
 + 33:g3_inv  =   3.3000   33:p0      =  96.3504n  33:p1      =  96.3504n
 + 33:p2      =  96.3504n  33:p3      =  96.3504n  34:co0     =  24.0876n
 + 34:co00    = 177.0562m  34:co01    =   1.0657   34:co1     =  24.0876n
 + 34:co10    =  24.0876n  34:co11    =  24.0876n  34:co2     =  24.0876n
 + 34:co20    =  24.0876n  34:co21    =  24.0876n  34:co30    =  24.0876n
 + 34:co31    =  24.0876n  34:d0      =   3.3000   34:d1      =   3.3000 
 + 34:d2      =   3.3000   34:d3      =   3.3000   34:g0_inv  =   3.3000 
 + 34:g1_inv  =   3.3000   34:g2_inv  =   3.3000   34:g3_inv  =   3.3000 
 + 34:p0      =  96.3504n  34:p1      =  96.3504n  34:p2      =  96.3504n
 + 34:p3      =  96.3504n  75:a       =   3.3000   76:a       =   3.3000 
 + 77:a       =   3.3000   78:a       =   3.3000   79:a       =   3.3000 
 + 79:b       =  32.3433n  79:c       =  48.1752n  79:in1_inv =   3.3000 
 + 79:in2_inv =   3.3000   80:a       =   3.3000   80:b       =  32.3433n
 + 80:c       =  48.1752n  80:in1_inv =   3.3000   80:in2_inv =   3.3000 
 + 81:a       =   3.3000   81:b       =  32.3433n  81:c       =  48.1752n
 + 81:in1_inv =   3.3000   81:in2_inv =   3.3000   82:a       =   3.3000 
 + 82:b       =  32.3433n  82:c       =  48.1752n  82:in1_inv =   3.3000 
 + 82:in2_inv =   3.3000   83:a       =   1.6397   84:a       =   1.6397 
 + 85:a       =   1.6397   86:a       =   1.6397   90:a       =   3.3000 
 + 90:b       =  32.3433n  90:c       =  48.1752n  90:in1_inv =   3.3000 
 + 90:in2_inv =   3.3000   91:a       =   3.3000   91:b       =  32.3433n
 + 91:c       =  48.1752n  91:in1_inv =   3.3000   91:in2_inv =   3.3000 
 + 92:a       =   3.3000   92:b       =  32.3433n  92:c       =  48.1752n
 + 92:in1_inv =   3.3000   92:in2_inv =   3.3000   93:a       =   3.3000 
 + 93:b       =  32.3433n  93:c       =  48.1752n  93:in1_inv =   3.3000 
 + 93:in2_inv =   3.3000   94:a       =   3.3000   95:a       =   3.3000 
 + 96:a       =   3.3000   97:a       =   3.3000   98:a       =   3.3000 
 + 98:b       =  32.3433n  98:c       =  48.1752n  98:in1_inv =   3.3000 
 + 98:in2_inv =   3.3000   99:a       =   3.3000   99:b       =  32.3433n
 + 99:c       =  48.1752n  99:in1_inv =   3.3000   99:in2_inv =   3.3000 
 +100:a       =   3.3000  100:b       =  32.3433n 100:c       =  48.1752n
 +100:in1_inv =   3.3000  100:in2_inv =   3.3000  101:a       =   3.3000 
 +101:b       =  32.3433n 101:c       =  48.1752n 101:in1_inv =   3.3000 
 +101:in2_inv =   3.3000  102:a       =   1.6397  103:a       =   1.6397 
 +104:a       =   1.6397  105:a       =   1.6397  109:a       =   3.3000 
 +109:b       =  32.3433n 109:c       =  48.1752n 109:in1_inv =   3.3000 
 +109:in2_inv =   3.3000  110:a       =   3.3000  110:b       =  32.3433n
 +110:c       =  48.1752n 110:in1_inv =   3.3000  110:in2_inv =   3.3000 
 +111:a       =   3.3000  111:b       =  32.3433n 111:c       =  48.1752n
 +111:in1_inv =   3.3000  111:in2_inv =   3.3000  112:a       =   3.3000 
 +112:b       =  32.3433n 112:c       =  48.1752n 112:in1_inv =   3.3000 
 +112:in2_inv =   3.3000  121:1       =  10.7053n 121:co_inv  =   3.3000 
 +121:pi_inv  =   3.3000  122:1       =  11.9264n 122:co_inv  =   3.3000 
 +122:pi_inv  =   3.3000  123:1       =  10.7053n 123:co_inv  =   3.3000 
 +123:pi_inv  =   3.3000  124:1       =  10.7053n 124:co_inv  =   3.3000 
 +124:pi_inv  =   3.3000  125:1       =   2.4229  125:co_inv  =   8.4152m
 +125:pi_inv  =   3.3000  126:1       = 226.3794m 126:co_inv  =   3.3000 
 +126:pi_inv  =   3.3000  127:1       =  10.7053n 127:co_inv  =   3.3000 
 +127:pi_inv  =   3.3000  128:1       =  10.7053n 128:co_inv  =   3.3000 
 +128:pi_inv  =   3.3000  129:1       = 253.3662m 129:2       =   3.3000 
 +129:s_inv   =   3.3000  130:1       =  24.0876n 130:2       =   3.3000 
 +130:s_inv   =   3.3000  131:1       =  24.0876n 131:2       =   3.3000 
 +131:s_inv   =   3.3000  132:1       =  24.0876n 132:2       =   3.3000 
 +132:s_inv   =   3.3000  149:1       =  10.7053n 149:co_inv  =   3.3000 
 +149:pi_inv  =   3.3000  150:1       =  11.9264n 150:co_inv  =   3.3000 
 +150:pi_inv  =   3.3000  151:1       =  10.7053n 151:co_inv  =   3.3000 
 +151:pi_inv  =   3.3000  152:1       =  10.7053n 152:co_inv  =   3.3000 
 +152:pi_inv  =   3.3000  153:1       =   2.4229  153:co_inv  =   8.4152m
 +153:pi_inv  =   3.3000  154:1       = 226.3794m 154:co_inv  =   3.3000 
 +154:pi_inv  =   3.3000  155:1       =  10.7053n 155:co_inv  =   3.3000 
 +155:pi_inv  =   3.3000  156:1       =  10.7053n 156:co_inv  =   3.3000 
 +156:pi_inv  =   3.3000  157:1       = 253.3662m 157:2       =   3.3000 
 +157:s_inv   =   3.3000  158:1       =  24.0876n 158:2       =   3.3000 
 +158:s_inv   =   3.3000  159:1       =  24.0876n 159:2       =   3.3000 
 +159:s_inv   =   3.3000  160:1       =  24.0876n 160:2       =   3.3000 
 +160:s_inv   =   3.3000 

 ******
 **********************************

 ****** transient analysis tnom=  25.000 temp=  25.000 ******
   tplh= failed                         measure parameter failed
   tr= failed                         measure parameter failed
   tf= failed                         measure parameter failed
 vomax=   failed
 vomin=   failed
 tco_total=   2.4658n  targ=  22.4608n   trig=  19.9950n
 tco_lookahead=   1.3066n  targ=  21.3016n   trig=  19.9950n
 tco_select=   1.1592n  targ=  22.4608n   trig=  21.3016n
 tplh=   failed
 tr=   failed
 tf=   failed
 avgpower=  -5.4656m  from=  20.0000n     to=  60.0000n

          ***** job concluded
 ******  
 **********************************

 ****** job statistics summary tnom=  25.000 temp=  25.000 ******

  ******  HSPICE Threads Information  ******

  Command Line Threads Count :     1
  Available CPU Count        :    20
  Actual Threads Count       :     1


  ****** Statistics of Ignored Elements ******
  Voltage Sources :       1

  ******  Circuit Statistics  ******
  # nodes       =     467 # elements   =     946
  # resistors   =       0 # capacitors =       0 # inductors   =       0
  # mutual_inds =       0 # vccs       =       0 # vcvs        =       0
  # cccs        =       0 # ccvs       =       0 # volt_srcs   =      34
  # curr_srcs   =       0 # diodes     =       0 # bjts        =       0
  # jfets       =       0 # mosfets    =     912 # U elements  =       0
  # T elements  =       0 # W elements =       0 # B elements  =       0
  # S elements  =       0 # P elements =       0 # va device   =       0
  # vector_srcs =       0 # N elements =       0


  ******  Runtime Statistics (seconds)  ******

  analysis           time    # points   tot. iter  conv.iter
  op point           0.02           1          20
  transient          0.34       10001         672         211 rev=         4
  readin             0.02
  errchk             0.01
  setup              0.00
  output             0.00


           peak memory used         74.64 megabytes
           total cpu time            0.39 seconds
           total elapsed time        0.42 seconds
           job started at     15:44:36 12/27/2023
           job ended   at     15:44:36 12/27/2023
           job total runtime         0.42 seconds


  lic: Release hspice token(s) 
 lic: total license checkout elapse time:        0.02(s)
