****** HSPICE -- P-2019.06-SP1-1 win64 (Sep 27 2019) ******
Input File: test.sp
lic:
lic: FLEXlm: SDK_12.3
lic: USER:   Winter               HOSTNAME: Marvel
lic: HOSTID: "f4267972055f"       PID:      31472
lic: Using FLEXlm license file:
lic: 27000@Marvel
lic: Checkout 1 hspice
lic: License/Maintenance for hspice will expire on 30-dec-2030/2030.12
lic: 1(in_use)/99(total) FLOATING license(s) on SERVER 27000@Marvel
lic:

 init: begin read circuit files, cpu clock= 2.90E-02
       option search = D:/Software/HSPICE/Hspice/Hspice_P-2019.06-SP1-1
                         /parts/behave/
       option post =     2.00
 init: end read circuit files, cpu clock= 3.20E-02 peak memory=      62 mb
 init: begin check errors, cpu clock= 3.20E-02
 init: end check errors, cpu clock= 3.60E-02 peak memory=      63 mb
 init: begin setup matrix, pivot=     0 cpu clock= 3.60E-02
       establish matrix -- done, cpu clock= 3.60E-02 peak memory=      63 mb
       re-order matrix -- done, cpu clock= 3.60E-02 peak memory=      63 mb
 init: end setup matrix, cpu clock= 3.70E-02 peak memory=      63 mb
 dcop: begin dcop, cpu clock= 3.70E-02
 dcop: end dcop, cpu clock= 4.00E-02 peak memory=      63 mb tot_iter=      14
 output: E:\WorkStation\Digital IC\src\final\hspice\test.mt0
 sweep: tran tran0    begin, stop_t=  1.00E-07 #sweeps=**** cpu clock= 4.00E-02
 tran: time= 1.0000E-08 tot_iter=      38 conv_iter=      14 cpu clock= 4.30E-02
 tran: time= 2.0000E-08 tot_iter=     197 conv_iter=      61 cpu clock= 5.90E-02
 tran: time= 3.0000E-08 tot_iter=     361 conv_iter=     108 cpu clock= 7.60E-02
 tran: time= 4.0000E-08 tot_iter=     467 conv_iter=     144 cpu clock= 8.80E-02
 tran: time= 5.0000E-08 tot_iter=     563 conv_iter=     177 cpu clock= 9.80E-02
 tran: time= 6.0000E-08 tot_iter=     697 conv_iter=     218 cpu clock= 1.12E-01
 tran: time= 7.0000E-08 tot_iter=     829 conv_iter=     259 cpu clock= 1.26E-01
 tran: time= 8.0000E-08 tot_iter=     946 conv_iter=     299 cpu clock= 1.40E-01
 tran: time= 9.0000E-08 tot_iter=    1043 conv_iter=     333 cpu clock= 1.50E-01
 tran: time= 1.0000E-07 tot_iter=    1169 conv_iter=     373 cpu clock= 1.63E-01
 sweep: tran tran0    end, cpu clock= 1.64E-01 peak memory=      64 mb
>info:         ***** hspice job concluded
 lic: Release hspice token(s)
