$DATA1 SOURCE='HSPICE' VERSION='P-2019.06-SP1-1 win64' PARAM_COUNT=0
.TITLE '**********************************'
 vomax            vomin            tphl             tplh            
 tr               tf               avgpower         temper          
 alter#          
    failed           failed           failed           failed       
    failed           failed        -3.523e-03         25.0000       
1               
